41

C          1.39920       -1.21620        1.18442
C          1.32731       -2.11146        2.44566
H          2.18723       -0.61419        1.67160
H          1.08030       -0.22630        0.96538
C          0.58018       -1.95963        3.75990
O          1.27921       -1.71930        4.90636
C          0.77782       -2.10407        6.13995
C          1.78629       -1.86016        7.26054
H          0.58985       -3.20001        6.09474
H         -0.17867       -1.58479        6.36788
O          1.38855       -2.59968        8.39646
H          1.92626       -0.76872        7.42960
H          2.77241       -2.26634        6.95070
P          0.93249       -1.56619        9.73201
O          2.12672       -0.34074       10.02842
O         -0.41582       -0.89398        9.35233
O          0.69002       -2.59762       11.13421
C         -0.02432       -1.93653       12.15602
C          0.95207       -1.25669       13.14202
H         -0.59820       -2.72453       12.68108
H         -0.78120       -1.23120       11.75726
N          0.32849       -0.64982       14.36022
H          1.50441       -0.47524       12.57511
H          1.69989       -2.02206       13.45366
C          1.40443        0.00310       15.14566
H          1.90443        0.80355       14.55510
H          2.18256       -0.73246       15.45113
H          1.00324        0.47214       16.07269
C         -0.30432       -1.68244       15.21680
H         -1.17966       -2.15203       14.72208
H         -0.68168       -1.23845       16.16579
H          0.42171       -2.48329       15.48213
C         -0.67675        0.37904       14.00372
H         -0.23673        1.15394       13.33764
H         -1.06677        0.88840       14.91392
H         -1.55664       -0.06679       13.49361
H          1.71937       -1.62667        0.36507
C          0.22462       -2.68887        1.78587
H          0.78556       -2.86412        0.90586
H         -0.30941       -2.17986        1.22791
O         -0.65518       -2.20446        4.02390
